$DATA1 SOURCE='HSPICE' VERSION='R-2020.12-3 linux64' PARAM_COUNT=0
.TITLE '** run oai file'
 thl              power            temper           alter#          
    failed         2.726e-05         25.0000        1               
